*LTspice
*
*MAX4080T
*76V, High-Side, Current-Sense Amplifiers with Voltage Output
*AE01001428
*
*netlist
.include MAX4080T.cir
*
*params
.param ILOAD=5
.param VSOURCE=76
.param RSNS=0.1
.param RLIM=20
.param RLPF=100
*
*load regulation
.dc I1 0 {ILOAD} 0.001
*
.backanno
.op
